/*--------------------------------*- C++ -*----------------------------------*| =========                 |                                                 |
| \      /  F ield         | OpenFOAM: The Open Source CFD Toolbox           |
|  \    /   O peration     | Version:  v2012                                 |
|   \  /    A nd           | Website:  www.openfoam.com                      |
|    \/     M anipulation  |                                                 |
\*---------------------------------------------------------------------------*/
FoamFile
{
    version     2.0;
    format      ascii;
    class       dictionary;
    object      blockMeshDict;
}

// * * * * * * * * * * * * * * * * * * * * * * * * * * * * * * * * * * * * * //

scale   1;



xcells 2;
ycells 180;
zcells 1;

vertices 
 ( 
	 ( 0.0 0.0 0 )  
	 ( 0.0 0.0 0.000613305166 )  
	 ( 0.0 0.034902 0.000613305166 )  
	 ( 0.0 0.034902 0 )  
	 ( 0.00039139 0.0 0 )  
	 ( 0.00039139 0.0 0.000613305166 )  
	 ( 0.00039139 0.034902 0.000613305166 )  
	 ( 0.00039139 0.034902 0 )  
	 ( 0.00078278 0.0 0 )  
	 ( 0.00078278 0.0 0.000613305166 )  
	 ( 0.00078278 0.034902 0.000613305166 )  
	 ( 0.00078278 0.034902 0 )  
	 ( 0.0011742 0.0 0 )  
	 ( 0.0011742 0.0 0.000613305166 )  
	 ( 0.0011742 0.034902 0.000613305166 )  
	 ( 0.0011742 0.034902 0 )  
	 ( 0.0015656 0.0 0 )  
	 ( 0.0015656 0.0 0.000613305166 )  
	 ( 0.0015656 0.034902 0.000613305166 )  
	 ( 0.0015656 0.034902 0 )  
	 ( 0.0019569 0.0 0 )  
	 ( 0.0019569 0.0 0.000613305166 )  
	 ( 0.0019569 0.034902 0.000613305166 )  
	 ( 0.0019569 0.034902 0 )  
	 ( 0.0023483 0.0 0 )  
	 ( 0.0023483 0.0 0.000613305166 )  
	 ( 0.0023483 0.034902 0.000613305166 )  
	 ( 0.0023483 0.034902 0 )  
	 ( 0.0027397 0.0 0 )  
	 ( 0.0027397 0.0 0.000613305166 )  
	 ( 0.0027397 0.034902 0.000613305166 )  
	 ( 0.0027397 0.034902 0 )  
	 ( 0.0031311 0.0 0 )  
	 ( 0.0031311 0.0 0.000613305166 )  
	 ( 0.0031311 0.034902 0.000613305166 )  
	 ( 0.0031311 0.034902 0 )  
	 ( 0.0035225 0.0 0 )  
	 ( 0.0035225 0.0 0.000613305166 )  
	 ( 0.0035225 0.034902 0.000613305166 )  
	 ( 0.0035225 0.034902 0 )  
	 ( 0.0039139 0.0 0 )  
	 ( 0.0039139 0.0 0.000613305166 )  
	 ( 0.0039139 0.034902 0.000613305166 )  
	 ( 0.0039139 0.034902 0 )  
	 ( 0.0043053 0.0 0 )  
	 ( 0.0043053 0.0 0.000613305166 )  
	 ( 0.0043053 0.034902 0.000613305166 )  
	 ( 0.0043053 0.034902 0 )  
	 ( 0.0046967 0.0 0 )  
	 ( 0.0046967 0.0 0.000613305166 )  
	 ( 0.0046967 0.034902 0.000613305166 )  
	 ( 0.0046967 0.034902 0 )  
	 ( 0.0050881 0.0 0 )  
	 ( 0.0050881 0.0 0.000613305166 )  
	 ( 0.0050881 0.034902 0.000613305166 )  
	 ( 0.0050881 0.034902 0 )  
	 ( 0.0054795 0.0 0 )  
	 ( 0.0054795 0.0 0.000613305166 )  
	 ( 0.0054795 0.034902 0.000613305166 )  
	 ( 0.0054795 0.034902 0 )  
	 ( 0.0058708 0.0 0 )  
	 ( 0.0058708 0.0 0.000613305166 )  
	 ( 0.0058708 0.034902 0.000613305166 )  
	 ( 0.0058708 0.034902 0 )  
	 ( 0.0062622 0.0 0 )  
	 ( 0.0062622 0.0 0.000613305166 )  
	 ( 0.0062622 0.034902 0.000613305166 )  
	 ( 0.0062622 0.034902 0 )  
	 ( 0.0066536 0.0 0 )  
	 ( 0.0066536 0.0 0.000613305166 )  
	 ( 0.0066536 0.034902 0.000613305166 )  
	 ( 0.0066536 0.034902 0 )  
	 ( 0.007045 0.0 0 )  
	 ( 0.007045 0.0 0.000613305166 )  
	 ( 0.007045 0.034902 0.000613305166 )  
	 ( 0.007045 0.034902 0 )  
	 ( 0.0074364 0.0 0 )  
	 ( 0.0074364 0.0 0.000613305166 )  
	 ( 0.0074364 0.034902 0.000613305166 )  
	 ( 0.0074364 0.034902 0 )  
	 ( 0.0078278 0.0 0 )  
	 ( 0.0078278 0.0 0.000613305166 )  
	 ( 0.0078278 0.034902 0.000613305166 )  
	 ( 0.0078278 0.034902 0 )  
	 ( 0.0082192 0.0 0 )  
	 ( 0.0082192 0.0 0.000613305166 )  
	 ( 0.0082192 0.034902 0.000613305166 )  
	 ( 0.0082192 0.034902 0 )  
	 ( 0.0086106 0.0 0 )  
	 ( 0.0086106 0.0 0.000613305166 )  
	 ( 0.0086106 0.034902 0.000613305166 )  
	 ( 0.0086106 0.034902 0 )  
	 ( 0.009002 0.0 0 )  
	 ( 0.009002 0.0 0.000613305166 )  
	 ( 0.009002 0.034902 0.000613305166 )  
	 ( 0.009002 0.034902 0 )  
	 ( 0.0093933 0.0 0 )  
	 ( 0.0093933 0.0 0.000613305166 )  
	 ( 0.0093933 0.034902 0.000613305166 )  
	 ( 0.0093933 0.034902 0 )  
	 ( 0.0097847 0.0 0 )  
	 ( 0.0097847 0.0 0.000613305166 )  
	 ( 0.0097847 0.034902 0.000613305166 )  
	 ( 0.0097847 0.034902 0 )  
	 ( 0.010176 0.0 0 )  
	 ( 0.010176 0.0 0.000613305166 )  
	 ( 0.010176 0.034902 0.000613305166 )  
	 ( 0.010176 0.034902 0 )  
	 ( 0.010568 0.0 0 )  
	 ( 0.010568 0.0 0.000613305166 )  
	 ( 0.010568 0.034902 0.000613305166 )  
	 ( 0.010568 0.034902 0 )  
	 ( 0.010959 0.0 0 )  
	 ( 0.010959 0.0 0.000613305166 )  
	 ( 0.010959 0.034902 0.000613305166 )  
	 ( 0.010959 0.034902 0 )  
	 ( 0.01135 0.0 0 )  
	 ( 0.01135 0.0 0.000613305166 )  
	 ( 0.01135 0.034902 0.000613305166 )  
	 ( 0.01135 0.034902 0 )  
	 ( 0.011742 0.0 0 )  
	 ( 0.011742 0.0 0.000613305166 )  
	 ( 0.011742 0.034902 0.000613305166 )  
	 ( 0.011742 0.034902 0 )  
	 ( 0.012133 0.0 0 )  
	 ( 0.012133 0.0 0.000613305166 )  
	 ( 0.012133 0.034902 0.000613305166 )  
	 ( 0.012133 0.034902 0 )  
	 ( 0.012524 0.0 0 )  
	 ( 0.012524 0.0 0.000613305166 )  
	 ( 0.012524 0.034902 0.000613305166 )  
	 ( 0.012524 0.034902 0 )  
	 ( 0.012916 0.0 0 )  
	 ( 0.012916 0.0 0.000613305166 )  
	 ( 0.012916 0.034902 0.000613305166 )  
	 ( 0.012916 0.034902 0 )  
	 ( 0.013307 0.0 0 )  
	 ( 0.013307 0.0 0.000613305166 )  
	 ( 0.013307 0.034902 0.000613305166 )  
	 ( 0.013307 0.034902 0 )  
	 ( 0.013699 0.0 0 )  
	 ( 0.013699 0.0 0.000613305166 )  
	 ( 0.013699 0.034902 0.000613305166 )  
	 ( 0.013699 0.034902 0 )  
	 ( 0.01409 0.0 0 )  
	 ( 0.01409 0.0 0.000613305166 )  
	 ( 0.01409 0.034902 0.000613305166 )  
	 ( 0.01409 0.034902 0 )  
	 ( 0.014481 0.0 0 )  
	 ( 0.014481 0.0 0.000613305166 )  
	 ( 0.014481 0.034902 0.000613305166 )  
	 ( 0.014481 0.034902 0 )  
	 ( 0.014873 0.0 0 )  
	 ( 0.014873 0.0 0.000613305166 )  
	 ( 0.014873 0.034902 0.000613305166 )  
	 ( 0.014873 0.034902 0 )  
	 ( 0.015264 0.0 0 )  
	 ( 0.015264 0.0 0.000613305166 )  
	 ( 0.015264 0.034902 0.000613305166 )  
	 ( 0.015264 0.034902 0 )  
	 ( 0.015656 0.0 0 )  
	 ( 0.015656 0.0 0.000613305166 )  
	 ( 0.015656 0.034902 0.000613305166 )  
	 ( 0.015656 0.034902 0 )  
	 ( 0.016047 0.0 0 )  
	 ( 0.016047 0.0 0.000613305166 )  
	 ( 0.016047 0.034902 0.000613305166 )  
	 ( 0.016047 0.034902 0 )  
	 ( 0.016438 0.0 0 )  
	 ( 0.016438 0.0 0.000613305166 )  
	 ( 0.016438 0.034902 0.000613305166 )  
	 ( 0.016438 0.034902 0 )  
	 ( 0.01683 0.0 0 )  
	 ( 0.01683 0.0 0.000613305166 )  
	 ( 0.01683 0.034902 0.000613305166 )  
	 ( 0.01683 0.034902 0 )  
	 ( 0.017221 0.0 0 )  
	 ( 0.017221 0.0 0.000613305166 )  
	 ( 0.017221 0.034902 0.000613305166 )  
	 ( 0.017221 0.034902 0 )  
	 ( 0.017613 0.0 0 )  
	 ( 0.017613 0.0 0.000613305166 )  
	 ( 0.017613 0.034902 0.000613305166 )  
	 ( 0.017613 0.034902 0 )  
	 ( 0.018004 0.0 0 )  
	 ( 0.018004 0.0 0.000613305166 )  
	 ( 0.018004 0.034902 0.000613305166 )  
	 ( 0.018004 0.034902 0 )  
	 ( 0.018395 0.0 0 )  
	 ( 0.018395 0.0 0.000613305166 )  
	 ( 0.018395 0.034902 0.000613305166 )  
	 ( 0.018395 0.034902 0 )  
	 ( 0.018787 0.0 0 )  
	 ( 0.018787 0.0 0.000613305166 )  
	 ( 0.018787 0.034902 0.000613305166 )  
	 ( 0.018787 0.034902 0 )  
	 ( 0.019178 0.0 0 )  
	 ( 0.019178 0.0 0.000613305166 )  
	 ( 0.019178 0.034902 0.000613305166 )  
	 ( 0.019178 0.034902 0 )  
	 ( 0.019569 0.0 0 )  
	 ( 0.019569 0.0 0.000613305166 )  
	 ( 0.019569 0.034902 0.000613305166 )  
	 ( 0.019569 0.034902 0 )  
	 ( 0.019961 0.0 0 )  
	 ( 0.019961 0.0 0.000613305166 )  
	 ( 0.019961 0.034902 0.000613305166 )  
	 ( 0.019961 0.034902 0 )  
	 ( 0.020352 0.0 0 )  
	 ( 0.020352 0.0 0.000613305166 )  
	 ( 0.020352 0.034902 0.000613305166 )  
	 ( 0.020352 0.034902 0 )  
	 ( 0.020744 0.0 0 )  
	 ( 0.020744 0.0 0.000613305166 )  
	 ( 0.020744 0.034902 0.000613305166 )  
	 ( 0.020744 0.034902 0 )  
	 ( 0.021135 0.0 0 )  
	 ( 0.021135 0.0 0.000613305166 )  
	 ( 0.021135 0.034902 0.000613305166 )  
	 ( 0.021135 0.034902 0 )  
	 ( 0.021526 0.0 0 )  
	 ( 0.021526 0.0 0.000613305166 )  
	 ( 0.021526 0.034902 0.000613305166 )  
	 ( 0.021526 0.034902 0 )  
	 ( 0.021918 0.0 0 )  
	 ( 0.021918 0.0 0.000613305166 )  
	 ( 0.021918 0.034902 0.000613305166 )  
	 ( 0.021918 0.034902 0 )  
	 ( 0.022309 0.0 0 )  
	 ( 0.022309 0.0 0.000613305166 )  
	 ( 0.022309 0.034902 0.000613305166 )  
	 ( 0.022309 0.034902 0 )  
	 ( 0.022701 0.0 0 )  
	 ( 0.022701 0.0 0.000613305166 )  
	 ( 0.022701 0.034902 0.000613305166 )  
	 ( 0.022701 0.034902 0 )  
	 ( 0.023092 0.0 0 )  
	 ( 0.023092 0.0 0.000613305166 )  
	 ( 0.023092 0.034902 0.000613305166 )  
	 ( 0.023092 0.034902 0 )  
	 ( 0.023483 0.0 0 )  
	 ( 0.023483 0.0 0.000613305166 )  
	 ( 0.023483 0.034902 0.000613305166 )  
	 ( 0.023483 0.034902 0 )  
	 ( 0.023875 0.0 0 )  
	 ( 0.023875 0.0 0.000613305166 )  
	 ( 0.023875 0.034902 0.000613305166 )  
	 ( 0.023875 0.034902 0 )  
	 ( 0.024266 0.0 0 )  
	 ( 0.024266 0.0 0.000613305166 )  
	 ( 0.024266 0.034902 0.000613305166 )  
	 ( 0.024266 0.034902 0 )  
	 ( 0.024658 0.0 0 )  
	 ( 0.024658 0.0 0.000613305166 )  
	 ( 0.024658 0.034902 0.000613305166 )  
	 ( 0.024658 0.034902 0 )  
	 ( 0.025049 0.0 0 )  
	 ( 0.025049 0.0 0.000613305166 )  
	 ( 0.025049 0.034902 0.000613305166 )  
	 ( 0.025049 0.034902 0 )  
	 ( 0.02544 0.0 0 )  
	 ( 0.02544 0.0 0.000613305166 )  
	 ( 0.02544 0.034902 0.000613305166 )  
	 ( 0.02544 0.034902 0 )  
	 ( 0.025832 0.0 0 )  
	 ( 0.025832 0.0 0.000613305166 )  
	 ( 0.025832 0.034902 0.000613305166 )  
	 ( 0.025832 0.034902 0 )  
	 ( 0.026223 0.0 0 )  
	 ( 0.026223 0.0 0.000613305166 )  
	 ( 0.026223 0.034902 0.000613305166 )  
	 ( 0.026223 0.034902 0 )  
	 ( 0.026614 0.0 0 )  
	 ( 0.026614 0.0 0.000613305166 )  
	 ( 0.026614 0.034902 0.000613305166 )  
	 ( 0.026614 0.034902 0 )  
	 ( 0.027006 0.0 0 )  
	 ( 0.027006 0.0 0.000613305166 )  
	 ( 0.027006 0.034902 0.000613305166 )  
	 ( 0.027006 0.034902 0 )  
	 ( 0.027397 0.0 0 )  
	 ( 0.027397 0.0 0.000613305166 )  
	 ( 0.027397 0.034902 0.000613305166 )  
	 ( 0.027397 0.034902 0 )  
	 ( 0.027789 0.0 0 )  
	 ( 0.027789 0.0 0.000613305166 )  
	 ( 0.027789 0.034902 0.000613305166 )  
	 ( 0.027789 0.034902 0 )  
	 ( 0.02818 0.0 0 )  
	 ( 0.02818 0.0 0.000613305166 )  
	 ( 0.02818 0.034902 0.000613305166 )  
	 ( 0.02818 0.034902 0 )  
	 ( 0.028571 0.0 0 )  
	 ( 0.028571 0.0 0.000613305166 )  
	 ( 0.028571 0.034902 0.000613305166 )  
	 ( 0.028571 0.034902 0 )  
	 ( 0.028963 0.0 0 )  
	 ( 0.028963 0.0 0.000613305166 )  
	 ( 0.028963 0.034902 0.000613305166 )  
	 ( 0.028963 0.034902 0 )  
	 ( 0.029354 0.0 0 )  
	 ( 0.029354 0.0 0.000613305166 )  
	 ( 0.029354 0.034902 0.000613305166 )  
	 ( 0.029354 0.034902 0 )  
	 ( 0.029746 0.0 0 )  
	 ( 0.029746 0.0 0.000613305166 )  
	 ( 0.029746 0.034902 0.000613305166 )  
	 ( 0.029746 0.034902 0 )  
	 ( 0.030137 0.0 0 )  
	 ( 0.030137 0.0 0.000613305166 )  
	 ( 0.030137 0.034902 0.000613305166 )  
	 ( 0.030137 0.034902 0 )  
	 ( 0.030528 0.0 0 )  
	 ( 0.030528 0.0 0.000613305166 )  
	 ( 0.030528 0.034902 0.000613305166 )  
	 ( 0.030528 0.034902 0 )  
	 ( 0.03092 0.0 0 )  
	 ( 0.03092 0.0 0.000613305166 )  
	 ( 0.03092 0.034902 0.000613305166 )  
	 ( 0.03092 0.034902 0 )  
	 ( 0.031311 0.0 0 )  
	 ( 0.031311 0.0 0.000613305166 )  
	 ( 0.031311 0.034902 0.000613305166 )  
	 ( 0.031311 0.034902 0 )  
	 ( 0.031703 0.0 0 )  
	 ( 0.031703 0.0 0.000613305166 )  
	 ( 0.031703 0.034902 0.000613305166 )  
	 ( 0.031703 0.034902 0 )  
	 ( 0.032094 0.0 0 )  
	 ( 0.032094 0.0 0.000613305166 )  
	 ( 0.032094 0.034902 0.000613305166 )  
	 ( 0.032094 0.034902 0 )  
	 ( 0.032485 0.0 0 )  
	 ( 0.032485 0.0 0.000613305166 )  
	 ( 0.032485 0.034902 0.000613305166 )  
	 ( 0.032485 0.034902 0 )  
	 ( 0.032877 0.0 0 )  
	 ( 0.032877 0.0 0.000613305166 )  
	 ( 0.032877 0.034902 0.000613305166 )  
	 ( 0.032877 0.034902 0 )  
	 ( 0.033268 0.0 0 )  
	 ( 0.033268 0.0 0.000613305166 )  
	 ( 0.033268 0.034902 0.000613305166 )  
	 ( 0.033268 0.034902 0 )  
	 ( 0.033659 0.0 0 )  
	 ( 0.033659 0.0 0.000613305166 )  
	 ( 0.033659 0.034902 0.000613305166 )  
	 ( 0.033659 0.034902 0 )  
	 ( 0.034051 0.0 0 )  
	 ( 0.034051 0.0 0.000613305166 )  
	 ( 0.034051 0.034902 0.000613305166 )  
	 ( 0.034051 0.034902 0 )  
	 ( 0.034442 0.0 0 )  
	 ( 0.034442 0.0 0.000613305166 )  
	 ( 0.034442 0.034902 0.000613305166 )  
	 ( 0.034442 0.034902 0 )  
	 ( 0.034834 0.0 0 )  
	 ( 0.034834 0.0 0.000613305166 )  
	 ( 0.034834 0.034902 0.000613305166 )  
	 ( 0.034834 0.034902 0 )  
	 ( 0.035225 0.0 0 )  
	 ( 0.035225 0.0 0.000613305166 )  
	 ( 0.035225 0.034902 0.000613305166 )  
	 ( 0.035225 0.034902 0 )  
	 ( 0.035616 0.0 0 )  
	 ( 0.035616 0.0 0.000613305166 )  
	 ( 0.035616 0.034902 0.000613305166 )  
	 ( 0.035616 0.034902 0 )  
	 ( 0.036008 0.0 0 )  
	 ( 0.036008 0.0 0.000613305166 )  
	 ( 0.036008 0.034902 0.000613305166 )  
	 ( 0.036008 0.034902 0 )  
	 ( 0.036399 0.0 0 )  
	 ( 0.036399 0.0 0.000613305166 )  
	 ( 0.036399 0.034902 0.000613305166 )  
	 ( 0.036399 0.034902 0 )  
	 ( 0.036791 0.0 0 )  
	 ( 0.036791 0.0 0.000613305166 )  
	 ( 0.036791 0.034902 0.000613305166 )  
	 ( 0.036791 0.034902 0 )  
	 ( 0.037182 0.0 0 )  
	 ( 0.037182 0.0 0.000613305166 )  
	 ( 0.037182 0.034902 0.000613305166 )  
	 ( 0.037182 0.034902 0 )  
	 ( 0.037573 0.0 0 )  
	 ( 0.037573 0.0 0.000613305166 )  
	 ( 0.037573 0.034902 0.000613305166 )  
	 ( 0.037573 0.034902 0 )  
	 ( 0.037965 0.0 0 )  
	 ( 0.037965 0.0 0.000613305166 )  
	 ( 0.037965 0.034902 0.000613305166 )  
	 ( 0.037965 0.034902 0 )  
	 ( 0.038356 0.0 0 )  
	 ( 0.038356 0.0 0.000613305166 )  
	 ( 0.038356 0.034902 0.000613305166 )  
	 ( 0.038356 0.034902 0 )  
	 ( 0.038748 0.0 0 )  
	 ( 0.038748 0.0 0.000613305166 )  
	 ( 0.038748 0.034902 0.000613305166 )  
	 ( 0.038748 0.034902 0 )  
	 ( 0.039139 0.0 0 )  
	 ( 0.039139 0.0 0.000613305166 )  
	 ( 0.039139 0.034902 0.000613305166 )  
	 ( 0.039139 0.034902 0 )  
	 ( 0.03953 0.0 0 )  
	 ( 0.03953 0.0 0.000613305166 )  
	 ( 0.03953 0.034902 0.000613305166 )  
	 ( 0.03953 0.034902 0 )  
	 ( 0.039922 0.0 0 )  
	 ( 0.039922 0.0 0.000613305166 )  
	 ( 0.039922 0.034902 0.000613305166 )  
	 ( 0.039922 0.034902 0 )  
	 ( 0.040313 0.0 0 )  
	 ( 0.040313 0.0 0.000613305166 )  
	 ( 0.040313 0.034902 0.000613305166 )  
	 ( 0.040313 0.034902 0 )  
	 ( 0.040705 0.0 0 )  
	 ( 0.040705 0.0 0.000613305166 )  
	 ( 0.040705 0.034902 0.000613305166 )  
	 ( 0.040705 0.034902 0 )  
	 ( 0.041096 0.0 0 )  
	 ( 0.041096 0.0 0.000613305166 )  
	 ( 0.041096 0.034902 0.000613305166 )  
	 ( 0.041096 0.034902 0 )  
	 ( 0.041487 0.0 0 )  
	 ( 0.041487 0.0 0.000613305166 )  
	 ( 0.041487 0.034902 0.000613305166 )  
	 ( 0.041487 0.034902 0 )  
	 ( 0.041879 0.0 0 )  
	 ( 0.041879 0.0 0.000613305166 )  
	 ( 0.041879 0.034902 0.000613305166 )  
	 ( 0.041879 0.034902 0 )  
	 ( 0.04227 0.0 0 )  
	 ( 0.04227 0.0 0.000613305166 )  
	 ( 0.04227 0.034902 0.000613305166 )  
	 ( 0.04227 0.034902 0 )  
	 ( 0.042661 0.0 0 )  
	 ( 0.042661 0.0 0.000613305166 )  
	 ( 0.042661 0.034902 0.000613305166 )  
	 ( 0.042661 0.034902 0 )  
	 ( 0.043053 0.0 0 )  
	 ( 0.043053 0.0 0.000613305166 )  
	 ( 0.043053 0.034902 0.000613305166 )  
	 ( 0.043053 0.034902 0 )  
	 ( 0.043444 0.0 0 )  
	 ( 0.043444 0.0 0.000613305166 )  
	 ( 0.043444 0.034902 0.000613305166 )  
	 ( 0.043444 0.034902 0 )  
	 ( 0.043836 0.0 0 )  
	 ( 0.043836 0.0 0.000613305166 )  
	 ( 0.043836 0.034902 0.000613305166 )  
	 ( 0.043836 0.034902 0 )  
	 ( 0.044227 0.0 0 )  
	 ( 0.044227 0.0 0.000613305166 )  
	 ( 0.044227 0.034902 0.000613305166 )  
	 ( 0.044227 0.034902 0 )  
	 ( 0.044618 0.0 0 )  
	 ( 0.044618 0.0 0.000613305166 )  
	 ( 0.044618 0.034902 0.000613305166 )  
	 ( 0.044618 0.034902 0 )  
	 ( 0.04501 0.0 0 )  
	 ( 0.04501 0.0 0.000613305166 )  
	 ( 0.04501 0.034902 0.000613305166 )  
	 ( 0.04501 0.034902 0 )  
	 ( 0.045401 0.0 0 )  
	 ( 0.045401 0.0 0.000613305166 )  
	 ( 0.045401 0.034902 0.000613305166 )  
	 ( 0.045401 0.034902 0 )  
	 ( 0.045793 0.0 0 )  
	 ( 0.045793 0.0 0.000613305166 )  
	 ( 0.045793 0.034902 0.000613305166 )  
	 ( 0.045793 0.034902 0 )  
	 ( 0.046184 0.0 0 )  
	 ( 0.046184 0.0 0.000613305166 )  
	 ( 0.046184 0.034902 0.000613305166 )  
	 ( 0.046184 0.034902 0 )  
	 ( 0.046575 0.0 0 )  
	 ( 0.046575 0.0 0.000613305166 )  
	 ( 0.046575 0.034902 0.000613305166 )  
	 ( 0.046575 0.034902 0 )  
	 ( 0.046967 0.0 0 )  
	 ( 0.046967 0.0 0.000613305166 )  
	 ( 0.046967 0.034902 0.000613305166 )  
	 ( 0.046967 0.034902 0 )  
	 ( 0.047358 0.0 0 )  
	 ( 0.047358 0.0 0.000613305166 )  
	 ( 0.047358 0.034902 0.000613305166 )  
	 ( 0.047358 0.034902 0 )  
	 ( 0.04775 0.0 0 )  
	 ( 0.04775 0.0 0.000613305166 )  
	 ( 0.04775 0.034902 0.000613305166 )  
	 ( 0.04775 0.034902 0 )  
	 ( 0.048141 0.0 0 )  
	 ( 0.048141 0.0 0.000613305166 )  
	 ( 0.048141 0.034902 0.000613305166 )  
	 ( 0.048141 0.034902 0 )  
	 ( 0.048532 0.0 0 )  
	 ( 0.048532 0.0 0.000613305166 )  
	 ( 0.048532 0.034902 0.000613305166 )  
	 ( 0.048532 0.034902 0 )  
	 ( 0.048924 0.0 0 )  
	 ( 0.048924 0.0 0.000613305166 )  
	 ( 0.048924 0.034902 0.000613305166 )  
	 ( 0.048924 0.034902 0 )  
	 ( 0.049315 0.0 0 )  
	 ( 0.049315 0.0 0.000613305166 )  
	 ( 0.049315 0.034902 0.000613305166 )  
	 ( 0.049315 0.034902 0 )  
	 ( 0.049706 0.0 0 )  
	 ( 0.049706 0.0 0.000613305166 )  
	 ( 0.049706 0.034902 0.000613305166 )  
	 ( 0.049706 0.034902 0 )  
	 ( 0.050098 0.0 0 )  
	 ( 0.050098 0.0 0.000613305166 )  
	 ( 0.050098 0.034902 0.000613305166 )  
	 ( 0.050098 0.034902 0 )  
	 ( 0.050489 0.0 0 )  
	 ( 0.050489 0.0 0.000613305166 )  
	 ( 0.050489 0.034902 0.000613305166 )  
	 ( 0.050489 0.034902 0 )  
	 ( 0.050881 0.0 0 )  
	 ( 0.050881 0.0 0.000613305166 )  
	 ( 0.050881 0.034902 0.000613305166 )  
	 ( 0.050881 0.034902 0 )  
	 ( 0.051272 0.0 0 )  
	 ( 0.051272 0.0 0.000613305166 )  
	 ( 0.051272 0.034902 0.000613305166 )  
	 ( 0.051272 0.034902 0 )  
	 ( 0.051663 0.0 0 )  
	 ( 0.051663 0.0 0.000613305166 )  
	 ( 0.051663 0.034902 0.000613305166 )  
	 ( 0.051663 0.034902 0 )  
	 ( 0.052055 0.0 0 )  
	 ( 0.052055 0.0 0.000613305166 )  
	 ( 0.052055 0.034902 0.000613305166 )  
	 ( 0.052055 0.034902 0 )  
	 ( 0.052446 0.0 0 )  
	 ( 0.052446 0.0 0.000613305166 )  
	 ( 0.052446 0.034902 0.000613305166 )  
	 ( 0.052446 0.034902 0 )  
	 ( 0.052838 0.0 0 )  
	 ( 0.052838 0.0 0.000613305166 )  
	 ( 0.052838 0.034902 0.000613305166 )  
	 ( 0.052838 0.034902 0 )  
	 ( 0.053229 0.0 0 )  
	 ( 0.053229 0.0 0.000613305166 )  
	 ( 0.053229 0.034902 0.000613305166 )  
	 ( 0.053229 0.034902 0 )  
	 ( 0.05362 0.0 0 )  
	 ( 0.05362 0.0 0.000613305166 )  
	 ( 0.05362 0.034902 0.000613305166 )  
	 ( 0.05362 0.034902 0 )  
	 ( 0.054012 0.0 0 )  
	 ( 0.054012 0.0 0.000613305166 )  
	 ( 0.054012 0.034902 0.000613305166 )  
	 ( 0.054012 0.034902 0 )  
	 ( 0.054403 0.0 0 )  
	 ( 0.054403 0.0 0.000613305166 )  
	 ( 0.054403 0.034902 0.000613305166 )  
	 ( 0.054403 0.034902 0 )  
	 ( 0.054795 0.0 0 )  
	 ( 0.054795 0.0 0.000613305166 )  
	 ( 0.054795 0.034902 0.000613305166 )  
	 ( 0.054795 0.034902 0 )  
	 ( 0.055186 0.0 0 )  
	 ( 0.055186 0.0 0.000613305166 )  
	 ( 0.055186 0.034902 0.000613305166 )  
	 ( 0.055186 0.034902 0 )  
	 ( 0.055577 0.0 0 )  
	 ( 0.055577 0.0 0.000613305166 )  
	 ( 0.055577 0.034902 0.000613305166 )  
	 ( 0.055577 0.034902 0 )  
	 ( 0.055969 0.0 0 )  
	 ( 0.055969 0.0 0.000613305166 )  
	 ( 0.055969 0.034902 0.000613305166 )  
	 ( 0.055969 0.034902 0 )  
	 ( 0.05636 0.0 0 )  
	 ( 0.05636 0.0 0.000613305166 )  
	 ( 0.05636 0.034902 0.000613305166 )  
	 ( 0.05636 0.034902 0 )  
	 ( 0.056751 0.0 0 )  
	 ( 0.056751 0.0 0.000613305166 )  
	 ( 0.056751 0.034902 0.000613305166 )  
	 ( 0.056751 0.034902 0 )  
	 ( 0.057143 0.0 0 )  
	 ( 0.057143 0.0 0.000613305166 )  
	 ( 0.057143 0.034902 0.000613305166 )  
	 ( 0.057143 0.034902 0 )  
	 ( 0.057534 0.0 0 )  
	 ( 0.057534 0.0 0.000613305166 )  
	 ( 0.057534 0.034902 0.000613305166 )  
	 ( 0.057534 0.034902 0 )  
	 ( 0.057926 0.0 0 )  
	 ( 0.057926 0.0 0.000613305166 )  
	 ( 0.057926 0.034902 0.000613305166 )  
	 ( 0.057926 0.034902 0 )  
	 ( 0.058317 0.0 0 )  
	 ( 0.058317 0.0 0.000613305166 )  
	 ( 0.058317 0.034902 0.000613305166 )  
	 ( 0.058317 0.034902 0 )  
	 ( 0.058708 0.0 0 )  
	 ( 0.058708 0.0 0.000613305166 )  
	 ( 0.058708 0.034902 0.000613305166 )  
	 ( 0.058708 0.034902 0 )  
	 ( 0.0591 0.0 0 )  
	 ( 0.0591 0.0 0.000613305166 )  
	 ( 0.0591 0.034902 0.000613305166 )  
	 ( 0.0591 0.034902 0 )  
	 ( 0.059491 0.0 0 )  
	 ( 0.059491 0.0 0.000613305166 )  
	 ( 0.059491 0.034902 0.000613305166 )  
	 ( 0.059491 0.034902 0 )  
	 ( 0.059883 0.0 0 )  
	 ( 0.059883 0.0 0.000613305166 )  
	 ( 0.059883 0.034902 0.000613305166 )  
	 ( 0.059883 0.034902 0 )  
	 ( 0.060274 0.0 0 )  
	 ( 0.060274 0.0 0.000613305166 )  
	 ( 0.060274 0.034902 0.000613305166 )  
	 ( 0.060274 0.034902 0 )  
	 ( 0.060665 0.0 0 )  
	 ( 0.060665 0.0 0.000613305166 )  
	 ( 0.060665 0.034902 0.000613305166 )  
	 ( 0.060665 0.034902 0 )  
	 ( 0.061057 0.0 0 )  
	 ( 0.061057 0.0 0.000613305166 )  
	 ( 0.061057 0.034902 0.000613305166 )  
	 ( 0.061057 0.034902 0 )  
	 ( 0.061448 0.0 0 )  
	 ( 0.061448 0.0 0.000613305166 )  
	 ( 0.061448 0.034902 0.000613305166 )  
	 ( 0.061448 0.034902 0 )  
	 ( 0.06184 0.0 0 )  
	 ( 0.06184 0.0 0.000613305166 )  
	 ( 0.06184 0.034902 0.000613305166 )  
	 ( 0.06184 0.034902 0 )  
	 ( 0.062231 0.0 0 )  
	 ( 0.062231 0.0 0.000613305166 )  
	 ( 0.062231 0.034902 0.000613305166 )  
	 ( 0.062231 0.034902 0 )  
	 ( 0.062622 0.0 0 )  
	 ( 0.062622 0.0 0.000613305166 )  
	 ( 0.062622 0.034902 0.000613305166 )  
	 ( 0.062622 0.034902 0 )  
	 ( 0.063014 0.0 0 )  
	 ( 0.063014 0.0 0.000613305166 )  
	 ( 0.063014 0.034902 0.000613305166 )  
	 ( 0.063014 0.034902 0 )  
	 ( 0.063405 0.0 0 )  
	 ( 0.063405 0.0 0.000613305166 )  
	 ( 0.063405 0.034902 0.000613305166 )  
	 ( 0.063405 0.034902 0 )  
	 ( 0.063796 0.0 0 )  
	 ( 0.063796 0.0 0.000613305166 )  
	 ( 0.063796 0.034902 0.000613305166 )  
	 ( 0.063796 0.034902 0 )  
	 ( 0.064188 0.0 0 )  
	 ( 0.064188 0.0 0.000613305166 )  
	 ( 0.064188 0.034902 0.000613305166 )  
	 ( 0.064188 0.034902 0 )  
	 ( 0.064579 0.0 0 )  
	 ( 0.064579 0.0 0.000613305166 )  
	 ( 0.064579 0.034902 0.000613305166 )  
	 ( 0.064579 0.034902 0 )  
	 ( 0.064971 0.0 0 )  
	 ( 0.064971 0.0 0.000613305166 )  
	 ( 0.064971 0.034902 0.000613305166 )  
	 ( 0.064971 0.034902 0 )  
	 ( 0.065362 0.0 0 )  
	 ( 0.065362 0.0 0.000613305166 )  
	 ( 0.065362 0.034902 0.000613305166 )  
	 ( 0.065362 0.034902 0 )  
	 ( 0.065753 0.0 0 )  
	 ( 0.065753 0.0 0.000613305166 )  
	 ( 0.065753 0.034902 0.000613305166 )  
	 ( 0.065753 0.034902 0 )  
	 ( 0.066145 0.0 0 )  
	 ( 0.066145 0.0 0.000613305166 )  
	 ( 0.066145 0.034902 0.000613305166 )  
	 ( 0.066145 0.034902 0 )  
	 ( 0.066536 0.0 0 )  
	 ( 0.066536 0.0 0.000613305166 )  
	 ( 0.066536 0.034902 0.000613305166 )  
	 ( 0.066536 0.034902 0 )  
	 ( 0.066928 0.0 0 )  
	 ( 0.066928 0.0 0.000613305166 )  
	 ( 0.066928 0.034902 0.000613305166 )  
	 ( 0.066928 0.034902 0 )  
	 ( 0.067319 0.0 0 )  
	 ( 0.067319 0.0 0.000613305166 )  
	 ( 0.067319 0.034902 0.000613305166 )  
	 ( 0.067319 0.034902 0 )  
	 ( 0.06771 0.0 0 )  
	 ( 0.06771 0.0 0.000613305166 )  
	 ( 0.06771 0.034902 0.000613305166 )  
	 ( 0.06771 0.034902 0 )  
	 ( 0.068102 0.0 0 )  
	 ( 0.068102 0.0 0.000613305166 )  
	 ( 0.068102 0.034902 0.000613305166 )  
	 ( 0.068102 0.034902 0 )  
	 ( 0.068493 0.0 0 )  
	 ( 0.068493 0.0 0.000613305166 )  
	 ( 0.068493 0.034902 0.000613305166 )  
	 ( 0.068493 0.034902 0 )  
	 ( 0.068885 0.0 0 )  
	 ( 0.068885 0.0 0.000613305166 )  
	 ( 0.068885 0.034902 0.000613305166 )  
	 ( 0.068885 0.034902 0 )  
	 ( 0.069276 0.0 0 )  
	 ( 0.069276 0.0 0.000613305166 )  
	 ( 0.069276 0.034902 0.000613305166 )  
	 ( 0.069276 0.034902 0 )  
	 ( 0.069667 0.0 0 )  
	 ( 0.069667 0.0 0.000613305166 )  
	 ( 0.069667 0.034902 0.000613305166 )  
	 ( 0.069667 0.034902 0 )  

 ); 
 
 
blocks 
 ( 
 hex ( 0 4 7 3 1 5 6 2 )   ($xcells $ycells $zcells) simpleGrading (1 1 1)
hex ( 4 8 11 7 5 9 10 6 )   ($xcells $ycells $zcells) simpleGrading (1 1 1)
hex ( 8 12 15 11 9 13 14 10 )   ($xcells $ycells $zcells) simpleGrading (1 1 1)
hex ( 12 16 19 15 13 17 18 14 )   ($xcells $ycells $zcells) simpleGrading (1 1 1)
hex ( 16 20 23 19 17 21 22 18 )   ($xcells $ycells $zcells) simpleGrading (1 1 1)
hex ( 20 24 27 23 21 25 26 22 )   ($xcells $ycells $zcells) simpleGrading (1 1 1)
hex ( 24 28 31 27 25 29 30 26 )   ($xcells $ycells $zcells) simpleGrading (1 1 1)
hex ( 28 32 35 31 29 33 34 30 )   ($xcells $ycells $zcells) simpleGrading (1 1 1)
hex ( 32 36 39 35 33 37 38 34 )   ($xcells $ycells $zcells) simpleGrading (1 1 1)
hex ( 36 40 43 39 37 41 42 38 )   ($xcells $ycells $zcells) simpleGrading (1 1 1)
hex ( 40 44 47 43 41 45 46 42 )   ($xcells $ycells $zcells) simpleGrading (1 1 1)
hex ( 44 48 51 47 45 49 50 46 )   ($xcells $ycells $zcells) simpleGrading (1 1 1)
hex ( 48 52 55 51 49 53 54 50 )   ($xcells $ycells $zcells) simpleGrading (1 1 1)
hex ( 52 56 59 55 53 57 58 54 )   ($xcells $ycells $zcells) simpleGrading (1 1 1)
hex ( 56 60 63 59 57 61 62 58 )   ($xcells $ycells $zcells) simpleGrading (1 1 1)
hex ( 60 64 67 63 61 65 66 62 )   ($xcells $ycells $zcells) simpleGrading (1 1 1)
hex ( 64 68 71 67 65 69 70 66 )   ($xcells $ycells $zcells) simpleGrading (1 1 1)
hex ( 68 72 75 71 69 73 74 70 )   ($xcells $ycells $zcells) simpleGrading (1 1 1)
hex ( 72 76 79 75 73 77 78 74 )   ($xcells $ycells $zcells) simpleGrading (1 1 1)
hex ( 76 80 83 79 77 81 82 78 )   ($xcells $ycells $zcells) simpleGrading (1 1 1)
hex ( 80 84 87 83 81 85 86 82 )   ($xcells $ycells $zcells) simpleGrading (1 1 1)
hex ( 84 88 91 87 85 89 90 86 )   ($xcells $ycells $zcells) simpleGrading (1 1 1)
hex ( 88 92 95 91 89 93 94 90 )   ($xcells $ycells $zcells) simpleGrading (1 1 1)
hex ( 92 96 99 95 93 97 98 94 )   ($xcells $ycells $zcells) simpleGrading (1 1 1)
hex ( 96 100 103 99 97 101 102 98 )   ($xcells $ycells $zcells) simpleGrading (1 1 1)
hex ( 100 104 107 103 101 105 106 102 )   ($xcells $ycells $zcells) simpleGrading (1 1 1)
hex ( 104 108 111 107 105 109 110 106 )   ($xcells $ycells $zcells) simpleGrading (1 1 1)
hex ( 108 112 115 111 109 113 114 110 )   ($xcells $ycells $zcells) simpleGrading (1 1 1)
hex ( 112 116 119 115 113 117 118 114 )   ($xcells $ycells $zcells) simpleGrading (1 1 1)
hex ( 116 120 123 119 117 121 122 118 )   ($xcells $ycells $zcells) simpleGrading (1 1 1)
hex ( 120 124 127 123 121 125 126 122 )   ($xcells $ycells $zcells) simpleGrading (1 1 1)
hex ( 124 128 131 127 125 129 130 126 )   ($xcells $ycells $zcells) simpleGrading (1 1 1)
hex ( 128 132 135 131 129 133 134 130 )   ($xcells $ycells $zcells) simpleGrading (1 1 1)
hex ( 132 136 139 135 133 137 138 134 )   ($xcells $ycells $zcells) simpleGrading (1 1 1)
hex ( 136 140 143 139 137 141 142 138 )   ($xcells $ycells $zcells) simpleGrading (1 1 1)
hex ( 140 144 147 143 141 145 146 142 )   ($xcells $ycells $zcells) simpleGrading (1 1 1)
hex ( 144 148 151 147 145 149 150 146 )   ($xcells $ycells $zcells) simpleGrading (1 1 1)
hex ( 148 152 155 151 149 153 154 150 )   ($xcells $ycells $zcells) simpleGrading (1 1 1)
hex ( 152 156 159 155 153 157 158 154 )   ($xcells $ycells $zcells) simpleGrading (1 1 1)
hex ( 156 160 163 159 157 161 162 158 )   ($xcells $ycells $zcells) simpleGrading (1 1 1)
hex ( 160 164 167 163 161 165 166 162 )   ($xcells $ycells $zcells) simpleGrading (1 1 1)
hex ( 164 168 171 167 165 169 170 166 )   ($xcells $ycells $zcells) simpleGrading (1 1 1)
hex ( 168 172 175 171 169 173 174 170 )   ($xcells $ycells $zcells) simpleGrading (1 1 1)
hex ( 172 176 179 175 173 177 178 174 )   ($xcells $ycells $zcells) simpleGrading (1 1 1)
hex ( 176 180 183 179 177 181 182 178 )   ($xcells $ycells $zcells) simpleGrading (1 1 1)
hex ( 180 184 187 183 181 185 186 182 )   ($xcells $ycells $zcells) simpleGrading (1 1 1)
hex ( 184 188 191 187 185 189 190 186 )   ($xcells $ycells $zcells) simpleGrading (1 1 1)
hex ( 188 192 195 191 189 193 194 190 )   ($xcells $ycells $zcells) simpleGrading (1 1 1)
hex ( 192 196 199 195 193 197 198 194 )   ($xcells $ycells $zcells) simpleGrading (1 1 1)
hex ( 196 200 203 199 197 201 202 198 )   ($xcells $ycells $zcells) simpleGrading (1 1 1)
hex ( 200 204 207 203 201 205 206 202 )   ($xcells $ycells $zcells) simpleGrading (1 1 1)
hex ( 204 208 211 207 205 209 210 206 )   ($xcells $ycells $zcells) simpleGrading (1 1 1)
hex ( 208 212 215 211 209 213 214 210 )   ($xcells $ycells $zcells) simpleGrading (1 1 1)
hex ( 212 216 219 215 213 217 218 214 )   ($xcells $ycells $zcells) simpleGrading (1 1 1)
hex ( 216 220 223 219 217 221 222 218 )   ($xcells $ycells $zcells) simpleGrading (1 1 1)
hex ( 220 224 227 223 221 225 226 222 )   ($xcells $ycells $zcells) simpleGrading (1 1 1)
hex ( 224 228 231 227 225 229 230 226 )   ($xcells $ycells $zcells) simpleGrading (1 1 1)
hex ( 228 232 235 231 229 233 234 230 )   ($xcells $ycells $zcells) simpleGrading (1 1 1)
hex ( 232 236 239 235 233 237 238 234 )   ($xcells $ycells $zcells) simpleGrading (1 1 1)
hex ( 236 240 243 239 237 241 242 238 )   ($xcells $ycells $zcells) simpleGrading (1 1 1)
hex ( 240 244 247 243 241 245 246 242 )   ($xcells $ycells $zcells) simpleGrading (1 1 1)
hex ( 244 248 251 247 245 249 250 246 )   ($xcells $ycells $zcells) simpleGrading (1 1 1)
hex ( 248 252 255 251 249 253 254 250 )   ($xcells $ycells $zcells) simpleGrading (1 1 1)
hex ( 252 256 259 255 253 257 258 254 )   ($xcells $ycells $zcells) simpleGrading (1 1 1)
hex ( 256 260 263 259 257 261 262 258 )   ($xcells $ycells $zcells) simpleGrading (1 1 1)
hex ( 260 264 267 263 261 265 266 262 )   ($xcells $ycells $zcells) simpleGrading (1 1 1)
hex ( 264 268 271 267 265 269 270 266 )   ($xcells $ycells $zcells) simpleGrading (1 1 1)
hex ( 268 272 275 271 269 273 274 270 )   ($xcells $ycells $zcells) simpleGrading (1 1 1)
hex ( 272 276 279 275 273 277 278 274 )   ($xcells $ycells $zcells) simpleGrading (1 1 1)
hex ( 276 280 283 279 277 281 282 278 )   ($xcells $ycells $zcells) simpleGrading (1 1 1)
hex ( 280 284 287 283 281 285 286 282 )   ($xcells $ycells $zcells) simpleGrading (1 1 1)