/*--------------------------------*- C++ -*----------------------------------*| =========                 |                                                 |
| \      /  F ield         | OpenFOAM: The Open Source CFD Toolbox           |
|  \    /   O peration     | Version:  v2012                                 |
|   \  /    A nd           | Website:  www.openfoam.com                      |
|    \/     M anipulation  |                                                 |
\*---------------------------------------------------------------------------*/
FoamFile
{
    version     2.0;
    format      ascii;
    class       dictionary;
    object      blockMeshDict;
}

// * * * * * * * * * * * * * * * * * * * * * * * * * * * * * * * * * * * * * //

scale   1;



xcells 2;
ycells 180;
zcells 4;

vertices 
 ( 
	 ( 0.0 0.0 0.0018096 )  
	 ( 0.0 0.0 0.0024477 )  
	 ( 0.0 0.034902 0.0013997 )  
	 ( 0.0 0.034902 0.00085562 )  
	 ( 0.00039139 0.0 0.0018481 )  
	 ( 0.00039139 0.0 0.0025324 )  
	 ( 0.00039139 0.034902 0.001381 )  
	 ( 0.00039139 0.034902 0.00081492 )  
	 ( 0.00078278 0.0 0.0018374 )  
	 ( 0.00078278 0.0 0.0026399 )  
	 ( 0.00078278 0.034902 0.0014039 )  
	 ( 0.00078278 0.034902 0.00080707 )  
	 ( 0.0011742 0.0 0.0018717 )  
	 ( 0.0011742 0.0 0.0026679 )  
	 ( 0.0011742 0.034902 0.0013959 )  
	 ( 0.0011742 0.034902 0.00075243 )  
	 ( 0.0015656 0.0 0.0019323 )  
	 ( 0.0015656 0.0 0.0027701 )  
	 ( 0.0015656 0.034902 0.0014052 )  
	 ( 0.0015656 0.034902 0.00068549 )  
	 ( 0.0019569 0.0 0.0019303 )  
	 ( 0.0019569 0.0 0.002739 )  
	 ( 0.0019569 0.034902 0.00144 )  
	 ( 0.0019569 0.034902 0.00069962 )  
	 ( 0.0023483 0.0 0.0019132 )  
	 ( 0.0023483 0.0 0.0027688 )  
	 ( 0.0023483 0.034902 0.0015025 )  
	 ( 0.0023483 0.034902 0.00067169 )  
	 ( 0.0027397 0.0 0.0019462 )  
	 ( 0.0027397 0.0 0.002791 )  
	 ( 0.0027397 0.034902 0.001595 )  
	 ( 0.0027397 0.034902 0.00071727 )  
	 ( 0.0031311 0.0 0.0019696 )  
	 ( 0.0031311 0.0 0.0028071 )  
	 ( 0.0031311 0.034902 0.001574 )  
	 ( 0.0031311 0.034902 0.00077202 )  
	 ( 0.0035225 0.0 0.0020334 )  
	 ( 0.0035225 0.0 0.0028187 )  
	 ( 0.0035225 0.034902 0.0015687 )  
	 ( 0.0035225 0.034902 0.00074642 )  
	 ( 0.0039139 0.0 0.0020702 )  
	 ( 0.0039139 0.0 0.002854 )  
	 ( 0.0039139 0.034902 0.0015262 )  
	 ( 0.0039139 0.034902 0.00071552 )  
	 ( 0.0043053 0.0 0.0021269 )  
	 ( 0.0043053 0.0 0.0028065 )  
	 ( 0.0043053 0.034902 0.0015121 )  
	 ( 0.0043053 0.034902 0.00074977 )  
	 ( 0.0046967 0.0 0.0021272 )  
	 ( 0.0046967 0.0 0.002779 )  
	 ( 0.0046967 0.034902 0.0014364 )  
	 ( 0.0046967 0.034902 0.00087225 )  
	 ( 0.0050881 0.0 0.0021216 )  
	 ( 0.0050881 0.0 0.0028444 )  
	 ( 0.0050881 0.034902 0.0014473 )  
	 ( 0.0050881 0.034902 0.00091229 )  
	 ( 0.0054795 0.0 0.002147 )  
	 ( 0.0054795 0.0 0.002841 )  
	 ( 0.0054795 0.034902 0.0014347 )  
	 ( 0.0054795 0.034902 0.00087071 )  
	 ( 0.0058708 0.0 0.0021623 )  
	 ( 0.0058708 0.0 0.0028624 )  
	 ( 0.0058708 0.034902 0.0013935 )  
	 ( 0.0058708 0.034902 0.00078443 )  
	 ( 0.0062622 0.0 0.0021152 )  
	 ( 0.0062622 0.0 0.0028946 )  
	 ( 0.0062622 0.034902 0.0013579 )  
	 ( 0.0062622 0.034902 0.00071952 )  
	 ( 0.0066536 0.0 0.0020922 )  
	 ( 0.0066536 0.0 0.0028698 )  
	 ( 0.0066536 0.034902 0.0014068 )  
	 ( 0.0066536 0.034902 0.00072327 )  
	 ( 0.007045 0.0 0.0020507 )  
	 ( 0.007045 0.0 0.002843 )  
	 ( 0.007045 0.034902 0.0014098 )  
	 ( 0.007045 0.034902 0.00069692 )  
	 ( 0.0074364 0.0 0.0019814 )  
	 ( 0.0074364 0.0 0.0028314 )  
	 ( 0.0074364 0.034902 0.0013953 )  
	 ( 0.0074364 0.034902 0.0007401 )  
	 ( 0.0078278 0.0 0.0019179 )  
	 ( 0.0078278 0.0 0.0028332 )  
	 ( 0.0078278 0.034902 0.0014048 )  
	 ( 0.0078278 0.034902 0.00071471 )  
	 ( 0.0082192 0.0 0.0018821 )  
	 ( 0.0082192 0.0 0.0028016 )  
	 ( 0.0082192 0.034902 0.0014214 )  
	 ( 0.0082192 0.034902 0.00073546 )  
	 ( 0.0086106 0.0 0.0018783 )  
	 ( 0.0086106 0.0 0.0027577 )  
	 ( 0.0086106 0.034902 0.0013799 )  
	 ( 0.0086106 0.034902 0.00075158 )  
	 ( 0.009002 0.0 0.0018626 )  
	 ( 0.009002 0.0 0.0027429 )  
	 ( 0.009002 0.034902 0.0013548 )  
	 ( 0.009002 0.034902 0.00072742 )  
	 ( 0.0093933 0.0 0.0018853 )  
	 ( 0.0093933 0.0 0.0027277 )  
	 ( 0.0093933 0.034902 0.0013519 )  
	 ( 0.0093933 0.034902 0.00066655 )  
	 ( 0.0097847 0.0 0.0019172 )  
	 ( 0.0097847 0.0 0.0027027 )  
	 ( 0.0097847 0.034902 0.0013545 )  
	 ( 0.0097847 0.034902 0.00067621 )  
	 ( 0.010176 0.0 0.0019916 )  
	 ( 0.010176 0.0 0.0026844 )  
	 ( 0.010176 0.034902 0.0013484 )  
	 ( 0.010176 0.034902 0.00071271 )  
	 ( 0.010568 0.0 0.002038 )  
	 ( 0.010568 0.0 0.002703 )  
	 ( 0.010568 0.034902 0.0013535 )  
	 ( 0.010568 0.034902 0.00069071 )  
	 ( 0.010959 0.0 0.0020542 )  
	 ( 0.010959 0.0 0.0027076 )  
	 ( 0.010959 0.034902 0.0013877 )  
	 ( 0.010959 0.034902 0.00066983 )  
	 ( 0.01135 0.0 0.0019999 )  
	 ( 0.01135 0.0 0.002738 )  
	 ( 0.01135 0.034902 0.0014183 )  
	 ( 0.01135 0.034902 0.00063314 )  
	 ( 0.011742 0.0 0.0019148 )  
	 ( 0.011742 0.0 0.0027136 )  
	 ( 0.011742 0.034902 0.0014391 )  
	 ( 0.011742 0.034902 0.00063496 )  
	 ( 0.012133 0.0 0.0018725 )  
	 ( 0.012133 0.0 0.002674 )  
	 ( 0.012133 0.034902 0.0014773 )  
	 ( 0.012133 0.034902 0.00070762 )  
	 ( 0.012524 0.0 0.0018224 )  
	 ( 0.012524 0.0 0.0027065 )  
	 ( 0.012524 0.034902 0.001472 )  
	 ( 0.012524 0.034902 0.00082176 )  
	 ( 0.012916 0.0 0.0017906 )  
	 ( 0.012916 0.0 0.002706 )  
	 ( 0.012916 0.034902 0.0014947 )  
	 ( 0.012916 0.034902 0.0010211 )  
	 ( 0.013307 0.0 0.0017596 )  
	 ( 0.013307 0.0 0.0026393 )  
	 ( 0.013307 0.034902 0.0015026 )  
	 ( 0.013307 0.034902 0.0010763 )  
	 ( 0.013699 0.0 0.0017477 )  
	 ( 0.013699 0.0 0.0025517 )  
	 ( 0.013699 0.034902 0.0015368 )  
	 ( 0.013699 0.034902 0.001037 )  
	 ( 0.01409 0.0 0.001726 )  
	 ( 0.01409 0.0 0.0025162 )  
	 ( 0.01409 0.034902 0.0015359 )  
	 ( 0.01409 0.034902 0.001022 )  
	 ( 0.014481 0.0 0.0017409 )  
	 ( 0.014481 0.0 0.0025436 )  
	 ( 0.014481 0.034902 0.0016606 )  
	 ( 0.014481 0.034902 0.00099756 )  
	 ( 0.014873 0.0 0.0017338 )  
	 ( 0.014873 0.0 0.0025768 )  
	 ( 0.014873 0.034902 0.0017227 )  
	 ( 0.014873 0.034902 0.00094901 )  
	 ( 0.015264 0.0 0.001755 )  
	 ( 0.015264 0.0 0.0025749 )  
	 ( 0.015264 0.034902 0.0018191 )  
	 ( 0.015264 0.034902 0.00089369 )  
	 ( 0.015656 0.0 0.0018199 )  
	 ( 0.015656 0.0 0.0025578 )  
	 ( 0.015656 0.034902 0.0018771 )  
	 ( 0.015656 0.034902 0.00090451 )  
	 ( 0.016047 0.0 0.0018554 )  
	 ( 0.016047 0.0 0.0024901 )  
	 ( 0.016047 0.034902 0.001901 )  
	 ( 0.016047 0.034902 0.00098087 )  
	 ( 0.016438 0.0 0.0018843 )  
	 ( 0.016438 0.0 0.0024521 )  
	 ( 0.016438 0.034902 0.0019952 )  
	 ( 0.016438 0.034902 0.0010554 )  
	 ( 0.01683 0.0 0.0019174 )  
	 ( 0.01683 0.0 0.0025055 )  
	 ( 0.01683 0.034902 0.0020344 )  
	 ( 0.01683 0.034902 0.0011468 )  
	 ( 0.017221 0.0 0.0019132 )  
	 ( 0.017221 0.0 0.002509 )  
	 ( 0.017221 0.034902 0.0020225 )  
	 ( 0.017221 0.034902 0.0011891 )  
	 ( 0.017613 0.0 0.0019127 )  
	 ( 0.017613 0.0 0.0024245 )  
	 ( 0.017613 0.034902 0.0020124 )  
	 ( 0.017613 0.034902 0.001241 )  
	 ( 0.018004 0.0 0.0018351 )  
	 ( 0.018004 0.0 0.0023965 )  
	 ( 0.018004 0.034902 0.0020097 )  
	 ( 0.018004 0.034902 0.0012891 )  
	 ( 0.018395 0.0 0.0017821 )  
	 ( 0.018395 0.0 0.0023711 )  
	 ( 0.018395 0.034902 0.0020228 )  
	 ( 0.018395 0.034902 0.001395 )  
	 ( 0.018787 0.0 0.0017546 )  
	 ( 0.018787 0.0 0.0023725 )  
	 ( 0.018787 0.034902 0.001975 )  
	 ( 0.018787 0.034902 0.0014476 )  
	 ( 0.019178 0.0 0.0018158 )  
	 ( 0.019178 0.0 0.0024206 )  
	 ( 0.019178 0.034902 0.0019583 )  
	 ( 0.019178 0.034902 0.0015129 )  
	 ( 0.019569 0.0 0.0018249 )  
	 ( 0.019569 0.0 0.0024398 )  
	 ( 0.019569 0.034902 0.0020412 )  
	 ( 0.019569 0.034902 0.0016479 )  
	 ( 0.019961 0.0 0.0018299 )  
	 ( 0.019961 0.0 0.0024655 )  
	 ( 0.019961 0.034902 0.0021485 )  
	 ( 0.019961 0.034902 0.0017179 )  
	 ( 0.020352 0.0 0.0018452 )  
	 ( 0.020352 0.0 0.0025182 )  
	 ( 0.020352 0.034902 0.00224 )  
	 ( 0.020352 0.034902 0.0017178 )  
	 ( 0.020744 0.0 0.0018438 )  
	 ( 0.020744 0.0 0.0025474 )  
	 ( 0.020744 0.034902 0.0022782 )  
	 ( 0.020744 0.034902 0.0017011 )  
	 ( 0.021135 0.0 0.0018802 )  
	 ( 0.021135 0.0 0.0025464 )  
	 ( 0.021135 0.034902 0.0023496 )  
	 ( 0.021135 0.034902 0.0017725 )  
	 ( 0.021526 0.0 0.0018979 )  
	 ( 0.021526 0.0 0.0025357 )  
	 ( 0.021526 0.034902 0.0024167 )  
	 ( 0.021526 0.034902 0.0018581 )  
	 ( 0.021918 0.0 0.0018327 )  
	 ( 0.021918 0.0 0.0025364 )  
	 ( 0.021918 0.034902 0.0024947 )  
	 ( 0.021918 0.034902 0.0019144 )  
	 ( 0.022309 0.0 0.0017614 )  
	 ( 0.022309 0.0 0.0025696 )  
	 ( 0.022309 0.034902 0.0025097 )  
	 ( 0.022309 0.034902 0.0018783 )  
	 ( 0.022701 0.0 0.0017502 )  
	 ( 0.022701 0.0 0.0025516 )  
	 ( 0.022701 0.034902 0.002477 )  
	 ( 0.022701 0.034902 0.0018138 )  
	 ( 0.023092 0.0 0.001696 )  
	 ( 0.023092 0.0 0.0025127 )  
	 ( 0.023092 0.034902 0.0025146 )  
	 ( 0.023092 0.034902 0.0018009 )  
	 ( 0.023483 0.0 0.0016722 )  
	 ( 0.023483 0.0 0.0024482 )  
	 ( 0.023483 0.034902 0.0025168 )  
	 ( 0.023483 0.034902 0.0018281 )  
	 ( 0.023875 0.0 0.0016196 )  
	 ( 0.023875 0.0 0.0024256 )  
	 ( 0.023875 0.034902 0.0024927 )  
	 ( 0.023875 0.034902 0.0017756 )  
	 ( 0.024266 0.0 0.0015795 )  
	 ( 0.024266 0.0 0.0023955 )  
	 ( 0.024266 0.034902 0.0025248 )  
	 ( 0.024266 0.034902 0.0017291 )  
	 ( 0.024658 0.0 0.001549 )  
	 ( 0.024658 0.0 0.0023618 )  
	 ( 0.024658 0.034902 0.002492 )  
	 ( 0.024658 0.034902 0.0016742 )  
	 ( 0.025049 0.0 0.0015434 )  
	 ( 0.025049 0.0 0.0023468 )  
	 ( 0.025049 0.034902 0.0024663 )  
	 ( 0.025049 0.034902 0.0016173 )  
	 ( 0.02544 0.0 0.0015178 )  
	 ( 0.02544 0.0 0.0023135 )  
	 ( 0.02544 0.034902 0.002484 )  
	 ( 0.02544 0.034902 0.0015913 )  
	 ( 0.025832 0.0 0.0015286 )  
	 ( 0.025832 0.0 0.0021852 )  
	 ( 0.025832 0.034902 0.0024025 )  
	 ( 0.025832 0.034902 0.0015719 )  
	 ( 0.026223 0.0 0.0016171 )  
	 ( 0.026223 0.0 0.0020784 )  
	 ( 0.026223 0.034902 0.0022621 )  
	 ( 0.026223 0.034902 0.0015947 )  
	 ( 0.026614 0.0 0.0016966 )  
	 ( 0.026614 0.0 0.0020454 )  
	 ( 0.026614 0.034902 0.0021951 )  
	 ( 0.026614 0.034902 0.0015649 )  
	 ( 0.027006 0.0 0.0016877 )  
	 ( 0.027006 0.0 0.002117 )  
	 ( 0.027006 0.034902 0.0021556 )  
	 ( 0.027006 0.034902 0.0015591 )  
	 ( 0.027397 0.0 0.001648 )  
	 ( 0.027397 0.0 0.0021803 )  
	 ( 0.027397 0.034902 0.0021841 )  
	 ( 0.027397 0.034902 0.0015415 )  
	 ( 0.027789 0.0 0.001554 )  
	 ( 0.027789 0.0 0.002243 )  
	 ( 0.027789 0.034902 0.0022156 )  
	 ( 0.027789 0.034902 0.0014938 )  
	 ( 0.02818 0.0 0.0013796 )  
	 ( 0.02818 0.0 0.002213 )  
	 ( 0.02818 0.034902 0.0021801 )  
	 ( 0.02818 0.034902 0.0014472 )  
	 ( 0.028571 0.0 0.0013207 )  
	 ( 0.028571 0.0 0.0021588 )  
	 ( 0.028571 0.034902 0.0020955 )  
	 ( 0.028571 0.034902 0.0014415 )  
	 ( 0.028963 0.0 0.0013192 )  
	 ( 0.028963 0.0 0.0020341 )  
	 ( 0.028963 0.034902 0.0020622 )  
	 ( 0.028963 0.034902 0.0015099 )  
	 ( 0.029354 0.0 0.0013149 )  
	 ( 0.029354 0.0 0.0019569 )  
	 ( 0.029354 0.034902 0.0020352 )  
	 ( 0.029354 0.034902 0.0015791 )  
	 ( 0.029746 0.0 0.0013045 )  
	 ( 0.029746 0.0 0.0018977 )  
	 ( 0.029746 0.034902 0.0020113 )  
	 ( 0.029746 0.034902 0.0016466 )  
	 ( 0.030137 0.0 0.0012653 )  
	 ( 0.030137 0.0 0.0018621 )  
	 ( 0.030137 0.034902 0.0020445 )  
	 ( 0.030137 0.034902 0.0016097 )  
	 ( 0.030528 0.0 0.001194 )  
	 ( 0.030528 0.0 0.0018862 )  
	 ( 0.030528 0.034902 0.0020338 )  
	 ( 0.030528 0.034902 0.0015859 )  
	 ( 0.03092 0.0 0.0012449 )  
	 ( 0.03092 0.0 0.0018905 )  
	 ( 0.03092 0.034902 0.0020387 )  
	 ( 0.03092 0.034902 0.0015579 )  
	 ( 0.031311 0.0 0.001249 )  
	 ( 0.031311 0.0 0.0018824 )  
	 ( 0.031311 0.034902 0.0020423 )  
	 ( 0.031311 0.034902 0.001577 )  
	 ( 0.031703 0.0 0.0013016 )  
	 ( 0.031703 0.0 0.001903 )  
	 ( 0.031703 0.034902 0.0020044 )  
	 ( 0.031703 0.034902 0.0015644 )  
	 ( 0.032094 0.0 0.0013458 )  
	 ( 0.032094 0.0 0.0019488 )  
	 ( 0.032094 0.034902 0.0019374 )  
	 ( 0.032094 0.034902 0.0015442 )  
	 ( 0.032485 0.0 0.0012847 )  
	 ( 0.032485 0.0 0.0019418 )  
	 ( 0.032485 0.034902 0.0019643 )  
	 ( 0.032485 0.034902 0.0015608 )  
	 ( 0.032877 0.0 0.0012328 )  
	 ( 0.032877 0.0 0.0019458 )  
	 ( 0.032877 0.034902 0.001968 )  
	 ( 0.032877 0.034902 0.0015385 )  
	 ( 0.033268 0.0 0.0012632 )  
	 ( 0.033268 0.0 0.0019476 )  
	 ( 0.033268 0.034902 0.0020424 )  
	 ( 0.033268 0.034902 0.001497 )  
	 ( 0.033659 0.0 0.0012996 )  
	 ( 0.033659 0.0 0.0019188 )  
	 ( 0.033659 0.034902 0.0020808 )  
	 ( 0.033659 0.034902 0.0014851 )  
	 ( 0.034051 0.0 0.0013011 )  
	 ( 0.034051 0.0 0.0019022 )  
	 ( 0.034051 0.034902 0.002114 )  
	 ( 0.034051 0.034902 0.0015226 )  
	 ( 0.034442 0.0 0.001218 )  
	 ( 0.034442 0.0 0.0018891 )  
	 ( 0.034442 0.034902 0.0022318 )  
	 ( 0.034442 0.034902 0.0014864 )  
	 ( 0.034834 0.0 0.0011237 )  
	 ( 0.034834 0.0 0.001864 )  
	 ( 0.034834 0.034902 0.0022832 )  
	 ( 0.034834 0.034902 0.0013999 )  
	 ( 0.035225 0.0 0.001088 )  
	 ( 0.035225 0.0 0.0018802 )  
	 ( 0.035225 0.034902 0.0023037 )  
	 ( 0.035225 0.034902 0.0013619 )  
	 ( 0.035616 0.0 0.0010583 )  
	 ( 0.035616 0.0 0.0018923 )  
	 ( 0.035616 0.034902 0.0023651 )  
	 ( 0.035616 0.034902 0.0013033 )  
	 ( 0.036008 0.0 0.00098545 )  
	 ( 0.036008 0.0 0.0019436 )  
	 ( 0.036008 0.034902 0.0023449 )  
	 ( 0.036008 0.034902 0.0013261 )  
	 ( 0.036399 0.0 0.00092816 )  
	 ( 0.036399 0.0 0.0019724 )  
	 ( 0.036399 0.034902 0.0023122 )  
	 ( 0.036399 0.034902 0.0012757 )  
	 ( 0.036791 0.0 0.00096131 )  
	 ( 0.036791 0.0 0.0019911 )  
	 ( 0.036791 0.034902 0.0023224 )  
	 ( 0.036791 0.034902 0.001259 )  
	 ( 0.037182 0.0 0.00094244 )  
	 ( 0.037182 0.0 0.0019469 )  
	 ( 0.037182 0.034902 0.0023081 )  
	 ( 0.037182 0.034902 0.0012144 )  
	 ( 0.037573 0.0 0.00092601 )  
	 ( 0.037573 0.0 0.0019263 )  
	 ( 0.037573 0.034902 0.0023579 )  
	 ( 0.037573 0.034902 0.0011534 )  
	 ( 0.037965 0.0 0.00092394 )  
	 ( 0.037965 0.0 0.0018977 )  
	 ( 0.037965 0.034902 0.002375 )  
	 ( 0.037965 0.034902 0.0011901 )  
	 ( 0.038356 0.0 0.000923 )  
	 ( 0.038356 0.0 0.0018454 )  
	 ( 0.038356 0.034902 0.0023434 )  
	 ( 0.038356 0.034902 0.0012185 )  
	 ( 0.038748 0.0 0.00095698 )  
	 ( 0.038748 0.0 0.0017568 )  
	 ( 0.038748 0.034902 0.0022728 )  
	 ( 0.038748 0.034902 0.0012182 )  
	 ( 0.039139 0.0 0.0010183 )  
	 ( 0.039139 0.0 0.0016835 )  
	 ( 0.039139 0.034902 0.0022115 )  
	 ( 0.039139 0.034902 0.0012558 )  
	 ( 0.03953 0.0 0.0010307 )  
	 ( 0.03953 0.0 0.0016529 )  
	 ( 0.03953 0.034902 0.0021288 )  
	 ( 0.03953 0.034902 0.0013436 )  
	 ( 0.039922 0.0 0.0010427 )  
	 ( 0.039922 0.0 0.0016596 )  
	 ( 0.039922 0.034902 0.0020999 )  
	 ( 0.039922 0.034902 0.0013933 )  
	 ( 0.040313 0.0 0.0010453 )  
	 ( 0.040313 0.0 0.0016295 )  
	 ( 0.040313 0.034902 0.0021078 )  
	 ( 0.040313 0.034902 0.0014497 )  
	 ( 0.040705 0.0 0.0010291 )  
	 ( 0.040705 0.0 0.0016873 )  
	 ( 0.040705 0.034902 0.0020721 )  
	 ( 0.040705 0.034902 0.0015443 )  
	 ( 0.041096 0.0 0.0009675 )  
	 ( 0.041096 0.0 0.0017181 )  
	 ( 0.041096 0.034902 0.0020628 )  
	 ( 0.041096 0.034902 0.0015676 )  
	 ( 0.041487 0.0 0.00091265 )  
	 ( 0.041487 0.0 0.0016492 )  
	 ( 0.041487 0.034902 0.0020595 )  
	 ( 0.041487 0.034902 0.0015681 )  
	 ( 0.041879 0.0 0.00090627 )  
	 ( 0.041879 0.0 0.0016623 )  
	 ( 0.041879 0.034902 0.0020556 )  
	 ( 0.041879 0.034902 0.0015467 )  
	 ( 0.04227 0.0 0.00089573 )  
	 ( 0.04227 0.0 0.0016828 )  
	 ( 0.04227 0.034902 0.0020479 )  
	 ( 0.04227 0.034902 0.0014883 )  
	 ( 0.042661 0.0 0.00088472 )  
	 ( 0.042661 0.0 0.0016531 )  
	 ( 0.042661 0.034902 0.0020742 )  
	 ( 0.042661 0.034902 0.0014548 )  
	 ( 0.043053 0.0 0.00089909 )  
	 ( 0.043053 0.0 0.0016037 )  
	 ( 0.043053 0.034902 0.002067 )  
	 ( 0.043053 0.034902 0.0014595 )  
	 ( 0.043444 0.0 0.00092573 )  
	 ( 0.043444 0.0 0.0016031 )  
	 ( 0.043444 0.034902 0.002089 )  
	 ( 0.043444 0.034902 0.0015062 )  
	 ( 0.043836 0.0 0.0010111 )  
	 ( 0.043836 0.0 0.0015958 )  
	 ( 0.043836 0.034902 0.0020937 )  
	 ( 0.043836 0.034902 0.0014703 )  
	 ( 0.044227 0.0 0.0010281 )  
	 ( 0.044227 0.0 0.0016121 )  
	 ( 0.044227 0.034902 0.0020707 )  
	 ( 0.044227 0.034902 0.0014729 )  
	 ( 0.044618 0.0 0.00097903 )  
	 ( 0.044618 0.0 0.0016139 )  
	 ( 0.044618 0.034902 0.0020918 )  
	 ( 0.044618 0.034902 0.0014703 )  
	 ( 0.04501 0.0 0.00094122 )  
	 ( 0.04501 0.0 0.0016293 )  
	 ( 0.04501 0.034902 0.0020519 )  
	 ( 0.04501 0.034902 0.0014635 )  
	 ( 0.045401 0.0 0.00091356 )  
	 ( 0.045401 0.0 0.0015365 )  
	 ( 0.045401 0.034902 0.0021172 )  
	 ( 0.045401 0.034902 0.0014576 )  
	 ( 0.045793 0.0 0.00090283 )  
	 ( 0.045793 0.0 0.0014332 )  
	 ( 0.045793 0.034902 0.002174 )  
	 ( 0.045793 0.034902 0.0014369 )  
	 ( 0.046184 0.0 0.00085403 )  
	 ( 0.046184 0.0 0.0013769 )  
	 ( 0.046184 0.034902 0.0022039 )  
	 ( 0.046184 0.034902 0.0014568 )  
	 ( 0.046575 0.0 0.00083808 )  
	 ( 0.046575 0.0 0.0013885 )  
	 ( 0.046575 0.034902 0.0022138 )  
	 ( 0.046575 0.034902 0.0014641 )  
	 ( 0.046967 0.0 0.00084219 )  
	 ( 0.046967 0.0 0.0015224 )  
	 ( 0.046967 0.034902 0.0021807 )  
	 ( 0.046967 0.034902 0.0014765 )  
	 ( 0.047358 0.0 0.00087384 )  
	 ( 0.047358 0.0 0.0015277 )  
	 ( 0.047358 0.034902 0.0021628 )  
	 ( 0.047358 0.034902 0.0015028 )  
	 ( 0.04775 0.0 0.00084783 )  
	 ( 0.04775 0.0 0.0015207 )  
	 ( 0.04775 0.034902 0.0020562 )  
	 ( 0.04775 0.034902 0.0015062 )  
	 ( 0.048141 0.0 0.00085153 )  
	 ( 0.048141 0.0 0.0014653 )  
	 ( 0.048141 0.034902 0.0020292 )  
	 ( 0.048141 0.034902 0.0014599 )  
	 ( 0.048532 0.0 0.00089625 )  
	 ( 0.048532 0.0 0.0014695 )  
	 ( 0.048532 0.034902 0.0019858 )  
	 ( 0.048532 0.034902 0.0014764 )  
	 ( 0.048924 0.0 0.00095305 )  
	 ( 0.048924 0.0 0.0014743 )  
	 ( 0.048924 0.034902 0.0019529 )  
	 ( 0.048924 0.034902 0.001503 )  
	 ( 0.049315 0.0 0.00095033 )  
	 ( 0.049315 0.0 0.0015135 )  
	 ( 0.049315 0.034902 0.0019228 )  
	 ( 0.049315 0.034902 0.00145 )  
	 ( 0.049706 0.0 0.00095365 )  
	 ( 0.049706 0.0 0.0015275 )  
	 ( 0.049706 0.034902 0.0018043 )  
	 ( 0.049706 0.034902 0.0013899 )  
	 ( 0.050098 0.0 0.00099841 )  
	 ( 0.050098 0.0 0.0015681 )  
	 ( 0.050098 0.034902 0.0017586 )  
	 ( 0.050098 0.034902 0.0013924 )  
	 ( 0.050489 0.0 0.00099864 )  
	 ( 0.050489 0.0 0.0015902 )  
	 ( 0.050489 0.034902 0.0017359 )  
	 ( 0.050489 0.034902 0.0013677 )  
	 ( 0.050881 0.0 0.0010251 )  
	 ( 0.050881 0.0 0.0016433 )  
	 ( 0.050881 0.034902 0.0017165 )  
	 ( 0.050881 0.034902 0.0012994 )  
	 ( 0.051272 0.0 0.0010372 )  
	 ( 0.051272 0.0 0.0016698 )  
	 ( 0.051272 0.034902 0.0016853 )  
	 ( 0.051272 0.034902 0.0012848 )  
	 ( 0.051663 0.0 0.0010088 )  
	 ( 0.051663 0.0 0.0016323 )  
	 ( 0.051663 0.034902 0.0016838 )  
	 ( 0.051663 0.034902 0.0012575 )  
	 ( 0.052055 0.0 0.00098589 )  
	 ( 0.052055 0.0 0.0015708 )  
	 ( 0.052055 0.034902 0.0016792 )  
	 ( 0.052055 0.034902 0.0012597 )  
	 ( 0.052446 0.0 0.00096302 )  
	 ( 0.052446 0.0 0.0015469 )  
	 ( 0.052446 0.034902 0.0016499 )  
	 ( 0.052446 0.034902 0.0012724 )  
	 ( 0.052838 0.0 0.00090185 )  
	 ( 0.052838 0.0 0.0015131 )  
	 ( 0.052838 0.034902 0.0016773 )  
	 ( 0.052838 0.034902 0.0012765 )  
	 ( 0.053229 0.0 0.00088415 )  
	 ( 0.053229 0.0 0.0015156 )  
	 ( 0.053229 0.034902 0.0016485 )  
	 ( 0.053229 0.034902 0.0012464 )  
	 ( 0.05362 0.0 0.00093707 )  
	 ( 0.05362 0.0 0.0015162 )  
	 ( 0.05362 0.034902 0.0016041 )  
	 ( 0.05362 0.034902 0.0012006 )  
	 ( 0.054012 0.0 0.00091559 )  
	 ( 0.054012 0.0 0.0014926 )  
	 ( 0.054012 0.034902 0.0015924 )  
	 ( 0.054012 0.034902 0.0011403 )  
	 ( 0.054403 0.0 0.00089662 )  
	 ( 0.054403 0.0 0.0014779 )  
	 ( 0.054403 0.034902 0.0015972 )  
	 ( 0.054403 0.034902 0.0010616 )  
	 ( 0.054795 0.0 0.00086221 )  
	 ( 0.054795 0.0 0.0014503 )  
	 ( 0.054795 0.034902 0.0015973 )  
	 ( 0.054795 0.034902 0.0010431 )  
	 ( 0.055186 0.0 0.00081825 )  
	 ( 0.055186 0.0 0.0015 )  
	 ( 0.055186 0.034902 0.0015689 )  
	 ( 0.055186 0.034902 0.00096007 )  
	 ( 0.055577 0.0 0.00076959 )  
	 ( 0.055577 0.0 0.0014843 )  
	 ( 0.055577 0.034902 0.0015117 )  
	 ( 0.055577 0.034902 0.00086269 )  
	 ( 0.055969 0.0 0.00070139 )  
	 ( 0.055969 0.0 0.0014684 )  
	 ( 0.055969 0.034902 0.0014594 )  
	 ( 0.055969 0.034902 0.000816 )  
	 ( 0.05636 0.0 0.00071361 )  
	 ( 0.05636 0.0 0.0014085 )  
	 ( 0.05636 0.034902 0.0015093 )  
	 ( 0.05636 0.034902 0.00076139 )  
	 ( 0.056751 0.0 0.00070355 )  
	 ( 0.056751 0.0 0.0013326 )  
	 ( 0.056751 0.034902 0.0014923 )  
	 ( 0.056751 0.034902 0.00067445 )  
	 ( 0.057143 0.0 0.0006897 )  
	 ( 0.057143 0.0 0.0012844 )  
	 ( 0.057143 0.034902 0.0013956 )  
	 ( 0.057143 0.034902 0.00058441 )  
	 ( 0.057534 0.0 0.00067072 )  
	 ( 0.057534 0.0 0.001263 )  
	 ( 0.057534 0.034902 0.0013552 )  
	 ( 0.057534 0.034902 0.00058948 )  
	 ( 0.057926 0.0 0.00064955 )  
	 ( 0.057926 0.0 0.001282 )  
	 ( 0.057926 0.034902 0.0013724 )  
	 ( 0.057926 0.034902 0.00063799 )  
	 ( 0.058317 0.0 0.00065039 )  
	 ( 0.058317 0.0 0.0012254 )  
	 ( 0.058317 0.034902 0.0013288 )  
	 ( 0.058317 0.034902 0.000551 )  
	 ( 0.058708 0.0 0.00063116 )  
	 ( 0.058708 0.0 0.0011254 )  
	 ( 0.058708 0.034902 0.0012666 )  
	 ( 0.058708 0.034902 0.00041633 )  
	 ( 0.0591 0.0 0.00063728 )  
	 ( 0.0591 0.0 0.0011369 )  
	 ( 0.0591 0.034902 0.0012351 )  
	 ( 0.0591 0.034902 0.00036369 )  
	 ( 0.059491 0.0 0.0005796 )  
	 ( 0.059491 0.0 0.0010851 )  
	 ( 0.059491 0.034902 0.0011686 )  
	 ( 0.059491 0.034902 0.00035366 )  
	 ( 0.059883 0.0 0.00048897 )  
	 ( 0.059883 0.0 0.0010644 )  
	 ( 0.059883 0.034902 0.0010824 )  
	 ( 0.059883 0.034902 0.000343 )  
	 ( 0.060274 0.0 0.00044861 )  
	 ( 0.060274 0.0 0.001001 )  
	 ( 0.060274 0.034902 0.0010242 )  
	 ( 0.060274 0.034902 0.00028896 )  
	 ( 0.060665 0.0 0.00041641 )  
	 ( 0.060665 0.0 0.0010195 )  
	 ( 0.060665 0.034902 0.00095302 )  
	 ( 0.060665 0.034902 0.00026025 )  
	 ( 0.061057 0.0 0.00036769 )  
	 ( 0.061057 0.0 0.0010148 )  
	 ( 0.061057 0.034902 0.0009404 )  
	 ( 0.061057 0.034902 0.00017521 )  
	 ( 0.061448 0.0 0.00031757 )  
	 ( 0.061448 0.0 0.0010136 )  
	 ( 0.061448 0.034902 0.00091567 )  
	 ( 0.061448 0.034902 0.00014126 )  
	 ( 0.06184 0.0 0.00027979 )  
	 ( 0.06184 0.0 0.00090967 )  
	 ( 0.06184 0.034902 0.00089331 )  
	 ( 0.06184 0.034902 0.00012822 )  
	 ( 0.062231 0.0 0.00022493 )  
	 ( 0.062231 0.0 0.00084953 )  
	 ( 0.062231 0.034902 0.00079167 )  
	 ( 0.062231 0.034902 0.0000092697 )  
	 ( 0.062622 0.0 0.00012518 )  
	 ( 0.062622 0.0 0.00078774 )  
	 ( 0.062622 0.034902 0.0006492 )  
	 ( 0.062622 0.034902 -0.00012237 )  
	 ( 0.063014 0.0 0.00003745 )  
	 ( 0.063014 0.0 0.00076395 )  
	 ( 0.063014 0.034902 0.00051991 )  
	 ( 0.063014 0.034902 -0.00020677 )  
	 ( 0.063405 0.0 0.000016553 )  
	 ( 0.063405 0.0 0.00065722 )  
	 ( 0.063405 0.034902 0.00043312 )  
	 ( 0.063405 0.034902 -0.00024913 )  
	 ( 0.063796 0.0 -0.000018068 )  
	 ( 0.063796 0.0 0.00066243 )  
	 ( 0.063796 0.034902 0.00038829 )  
	 ( 0.063796 0.034902 -0.00029927 )  
	 ( 0.064188 0.0 -0.000089158 )  
	 ( 0.064188 0.0 0.00065499 )  
	 ( 0.064188 0.034902 0.0003203 )  
	 ( 0.064188 0.034902 -0.00027196 )  
	 ( 0.064579 0.0 -0.00016067 )  
	 ( 0.064579 0.0 0.00064881 )  
	 ( 0.064579 0.034902 0.00031867 )  
	 ( 0.064579 0.034902 -0.00026958 )  
	 ( 0.064971 0.0 -0.00017104 )  
	 ( 0.064971 0.0 0.00061876 )  
	 ( 0.064971 0.034902 0.00034577 )  
	 ( 0.064971 0.034902 -0.00035404 )  
	 ( 0.065362 0.0 -0.00023845 )  
	 ( 0.065362 0.0 0.00056593 )  
	 ( 0.065362 0.034902 0.00033609 )  
	 ( 0.065362 0.034902 -0.00042992 )  
	 ( 0.065753 0.0 -0.00038682 )  
	 ( 0.065753 0.0 0.00056145 )  
	 ( 0.065753 0.034902 0.00026244 )  
	 ( 0.065753 0.034902 -0.00042239 )  
	 ( 0.066145 0.0 -0.00046428 )  
	 ( 0.066145 0.0 0.00056045 )  
	 ( 0.066145 0.034902 0.00024681 )  
	 ( 0.066145 0.034902 -0.00038779 )  
	 ( 0.066536 0.0 -0.00053752 )  
	 ( 0.066536 0.0 0.00046728 )  
	 ( 0.066536 0.034902 0.00021952 )  
	 ( 0.066536 0.034902 -0.00038486 )  
	 ( 0.066928 0.0 -0.00057805 )  
	 ( 0.066928 0.0 0.00033832 )  
	 ( 0.066928 0.034902 0.00012888 )  
	 ( 0.066928 0.034902 -0.00034705 )  
	 ( 0.067319 0.0 -0.00060579 )  
	 ( 0.067319 0.0 0.00023272 )  
	 ( 0.067319 0.034902 0.000086958 )  
	 ( 0.067319 0.034902 -0.00032141 )  
	 ( 0.06771 0.0 -0.00065004 )  
	 ( 0.06771 0.0 0.00017467 )  
	 ( 0.06771 0.034902 0.000027072 )  
	 ( 0.06771 0.034902 -0.00036637 )  
	 ( 0.068102 0.0 -0.00065486 )  
	 ( 0.068102 0.0 0.00011587 )  
	 ( 0.068102 0.034902 0.000051903 )  
	 ( 0.068102 0.034902 -0.00043286 )  
	 ( 0.068493 0.0 -0.00062518 )  
	 ( 0.068493 0.0 0.000037284 )  
	 ( 0.068493 0.034902 0.000056632 )  
	 ( 0.068493 0.034902 -0.00044297 )  
	 ( 0.068885 0.0 -0.00057098 )  
	 ( 0.068885 0.0 0.0000042202 )  
	 ( 0.068885 0.034902 0.000075344 )  
	 ( 0.068885 0.034902 -0.00047774 )  
	 ( 0.069276 0.0 -0.00058934 )  
	 ( 0.069276 0.0 -0.000011961 )  
	 ( 0.069276 0.034902 0.000071234 )  
	 ( 0.069276 0.034902 -0.00053322 )  
	 ( 0.069667 0.0 -0.00064105 )  
	 ( 0.069667 0.0 -0.000056461 )  
	 ( 0.069667 0.034902 0.000049471 )  
	 ( 0.069667 0.034902 -0.00059453 )  

 ); 
 
 
blocks 
 ( 
 hex ( 0 4 7 3 1 5 6 2 )   ($xcells $ycells $zcells) simpleGrading (1 1 1)
hex ( 4 8 11 7 5 9 10 6 )   ($xcells $ycells $zcells) simpleGrading (1 1 1)
hex ( 8 12 15 11 9 13 14 10 )   ($xcells $ycells $zcells) simpleGrading (1 1 1)
hex ( 12 16 19 15 13 17 18 14 )   ($xcells $ycells $zcells) simpleGrading (1 1 1)
hex ( 16 20 23 19 17 21 22 18 )   ($xcells $ycells $zcells) simpleGrading (1 1 1)
hex ( 20 24 27 23 21 25 26 22 )   ($xcells $ycells $zcells) simpleGrading (1 1 1)
hex ( 24 28 31 27 25 29 30 26 )   ($xcells $ycells $zcells) simpleGrading (1 1 1)
hex ( 28 32 35 31 29 33 34 30 )   ($xcells $ycells $zcells) simpleGrading (1 1 1)
hex ( 32 36 39 35 33 37 38 34 )   ($xcells $ycells $zcells) simpleGrading (1 1 1)
hex ( 36 40 43 39 37 41 42 38 )   ($xcells $ycells $zcells) simpleGrading (1 1 1)
hex ( 40 44 47 43 41 45 46 42 )   ($xcells $ycells $zcells) simpleGrading (1 1 1)
hex ( 44 48 51 47 45 49 50 46 )   ($xcells $ycells $zcells) simpleGrading (1 1 1)
hex ( 48 52 55 51 49 53 54 50 )   ($xcells $ycells $zcells) simpleGrading (1 1 1)
hex ( 52 56 59 55 53 57 58 54 )   ($xcells $ycells $zcells) simpleGrading (1 1 1)
hex ( 56 60 63 59 57 61 62 58 )   ($xcells $ycells $zcells) simpleGrading (1 1 1)
hex ( 60 64 67 63 61 65 66 62 )   ($xcells $ycells $zcells) simpleGrading (1 1 1)
hex ( 64 68 71 67 65 69 70 66 )   ($xcells $ycells $zcells) simpleGrading (1 1 1)
hex ( 68 72 75 71 69 73 74 70 )   ($xcells $ycells $zcells) simpleGrading (1 1 1)
hex ( 72 76 79 75 73 77 78 74 )   ($xcells $ycells $zcells) simpleGrading (1 1 1)
hex ( 76 80 83 79 77 81 82 78 )   ($xcells $ycells $zcells) simpleGrading (1 1 1)
hex ( 80 84 87 83 81 85 86 82 )   ($xcells $ycells $zcells) simpleGrading (1 1 1)
hex ( 84 88 91 87 85 89 90 86 )   ($xcells $ycells $zcells) simpleGrading (1 1 1)
hex ( 88 92 95 91 89 93 94 90 )   ($xcells $ycells $zcells) simpleGrading (1 1 1)
hex ( 92 96 99 95 93 97 98 94 )   ($xcells $ycells $zcells) simpleGrading (1 1 1)
hex ( 96 100 103 99 97 101 102 98 )   ($xcells $ycells $zcells) simpleGrading (1 1 1)
hex ( 100 104 107 103 101 105 106 102 )   ($xcells $ycells $zcells) simpleGrading (1 1 1)
hex ( 104 108 111 107 105 109 110 106 )   ($xcells $ycells $zcells) simpleGrading (1 1 1)
hex ( 108 112 115 111 109 113 114 110 )   ($xcells $ycells $zcells) simpleGrading (1 1 1)
hex ( 112 116 119 115 113 117 118 114 )   ($xcells $ycells $zcells) simpleGrading (1 1 1)
hex ( 116 120 123 119 117 121 122 118 )   ($xcells $ycells $zcells) simpleGrading (1 1 1)
hex ( 120 124 127 123 121 125 126 122 )   ($xcells $ycells $zcells) simpleGrading (1 1 1)
hex ( 124 128 131 127 125 129 130 126 )   ($xcells $ycells $zcells) simpleGrading (1 1 1)
hex ( 128 132 135 131 129 133 134 130 )   ($xcells $ycells $zcells) simpleGrading (1 1 1)
hex ( 132 136 139 135 133 137 138 134 )   ($xcells $ycells $zcells) simpleGrading (1 1 1)
hex ( 136 140 143 139 137 141 142 138 )   ($xcells $ycells $zcells) simpleGrading (1 1 1)
hex ( 140 144 147 143 141 145 146 142 )   ($xcells $ycells $zcells) simpleGrading (1 1 1)
hex ( 144 148 151 147 145 149 150 146 )   ($xcells $ycells $zcells) simpleGrading (1 1 1)
hex ( 148 152 155 151 149 153 154 150 )   ($xcells $ycells $zcells) simpleGrading (1 1 1)
hex ( 152 156 159 155 153 157 158 154 )   ($xcells $ycells $zcells) simpleGrading (1 1 1)
hex ( 156 160 163 159 157 161 162 158 )   ($xcells $ycells $zcells) simpleGrading (1 1 1)
hex ( 160 164 167 163 161 165 166 162 )   ($xcells $ycells $zcells) simpleGrading (1 1 1)
hex ( 164 168 171 167 165 169 170 166 )   ($xcells $ycells $zcells) simpleGrading (1 1 1)
hex ( 168 172 175 171 169 173 174 170 )   ($xcells $ycells $zcells) simpleGrading (1 1 1)
hex ( 172 176 179 175 173 177 178 174 )   ($xcells $ycells $zcells) simpleGrading (1 1 1)
hex ( 176 180 183 179 177 181 182 178 )   ($xcells $ycells $zcells) simpleGrading (1 1 1)
hex ( 180 184 187 183 181 185 186 182 )   ($xcells $ycells $zcells) simpleGrading (1 1 1)
hex ( 184 188 191 187 185 189 190 186 )   ($xcells $ycells $zcells) simpleGrading (1 1 1)
hex ( 188 192 195 191 189 193 194 190 )   ($xcells $ycells $zcells) simpleGrading (1 1 1)
hex ( 192 196 199 195 193 197 198 194 )   ($xcells $ycells $zcells) simpleGrading (1 1 1)
hex ( 196 200 203 199 197 201 202 198 )   ($xcells $ycells $zcells) simpleGrading (1 1 1)
hex ( 200 204 207 203 201 205 206 202 )   ($xcells $ycells $zcells) simpleGrading (1 1 1)
hex ( 204 208 211 207 205 209 210 206 )   ($xcells $ycells $zcells) simpleGrading (1 1 1)
hex ( 208 212 215 211 209 213 214 210 )   ($xcells $ycells $zcells) simpleGrading (1 1 1)
hex ( 212 216 219 215 213 217 218 214 )   ($xcells $ycells $zcells) simpleGrading (1 1 1)
hex ( 216 220 223 219 217 221 222 218 )   ($xcells $ycells $zcells) simpleGrading (1 1 1)
hex ( 220 224 227 223 221 225 226 222 )   ($xcells $ycells $zcells) simpleGrading (1 1 1)
hex ( 224 228 231 227 225 229 230 226 )   ($xcells $ycells $zcells) simpleGrading (1 1 1)